!!>>>>>>>>>>>>>>>>>>>>>>>>>>>>>>>>>>>>>>>>>>>>>>>>>>>>>>>>>>>>>>>>>>>>>>
!! NEMO/OPA  :  ORCA2_OFF_PISCES configuration namelist used ot overwrite SHARED/namelist_ref
!!>>>>>>>>>>>>>>>>>>>>>>>>>>>>>>>>>>>>>>>>>>>>>>>>>>>>>>>>>>>>>>>>>>>>>>
!-----------------------------------------------------------------------
&namrun        !   parameters of the run
!-----------------------------------------------------------------------
   cn_exp      =  "PISCES"  !  experience name 
   nn_it000    =       1    !  first time step
   nn_itend    =    1460    !  last  time step (std 5475)
   nn_stock    =    1460    !  frequency of creation of a restart file (modulo referenced to 1)
/
!-----------------------------------------------------------------------
&namcfg        !   parameters of the configuration
!-----------------------------------------------------------------------
   cp_cfg      =  "orca"               !  name of the configuration
   jp_cfg      =       2               !  resolution of the configuration
   jpidta      =     182               !  1st lateral dimension ( >= jpi )
   jpjdta      =     149               !  2nd    "         "    ( >= jpj )
   jpkdta      =      31               !  number of levels      ( >= jpk )
   jpiglo      =     182               !  1st dimension of global domain --> i =jpidta
   jpjglo      =     149               !  2nd    -                  -    --> j  =jpjdta
   jpizoom     =       1               !  left bottom (i,j) indices of the zoom
   jpjzoom     =       1               !  in data domain indices
   jperio      =       4               !  lateral cond. type (between 0 and 6)
/
!-----------------------------------------------------------------------
&namzgr        !   vertical coordinate
!-----------------------------------------------------------------------
/
!-----------------------------------------------------------------------
&namdom        !   space and time domain (bathymetry, mesh, timestep)
!-----------------------------------------------------------------------
   nn_msh      =    1      !  create (=1) a mesh file or not (=0)
   rn_rdt      = 21600.    !  time step for the dynamics (and tracer if nn_acc=0)
   rn_rdtmin   = 21600.          !  minimum time step on tracers (used if nn_acc=1)
   rn_rdtmax   = 21600.          !  maximum time step on tracers (used if nn_acc=1)
   jphgr_msh   =       0               !  type of horizontal mesh
   ppglam0     =  999999.0             !  longitude of first raw and column T-point (jphgr_msh = 1)
   ppgphi0     =  999999.0             ! latitude  of first raw and column T-point (jphgr_msh = 1)
   ppe1_deg    =  999999.0             !  zonal      grid-spacing (degrees)
   ppe2_deg    =  999999.0             !  meridional grid-spacing (degrees)
   ppe1_m      =  999999.0             !  zonal      grid-spacing (degrees)
   ppe2_m      =  999999.0             !  meridional grid-spacing (degrees)
   ppsur       =   -4762.96143546300   !  ORCA r4, r2 and r05 coefficients
   ppa0        =     255.58049070440   ! (default coefficients)
   ppa1        =     245.58132232490   !
   ppkth       =      21.43336197938   !
   ppacr       =       3.0             !
   ppdzmin     =  999999.              !  Minimum vertical spacing
   pphmax      =  999999.              !  Maximum depth
   ldbletanh   =  .FALSE.              !  Use/do not use double tanf function for vertical coordinates
   ppa2        =  999999.              !  Double tanh function parameters
   ppkth2      =  999999.              !
   ppacr2      =  999999.              !
/
!-----------------------------------------------------------------------
&namsplit      !   time splitting parameters                            ("key_dynspg_ts")
!-----------------------------------------------------------------------
/
!-----------------------------------------------------------------------
&namcrs        !   Grid coarsening for dynamics output and/or
               !   passive tracer coarsened online simulations
!-----------------------------------------------------------------------
/
!-----------------------------------------------------------------------
&namsbc        !   Surface Boundary Condition (surface module)
!-----------------------------------------------------------------------
   nn_fsbc     = 1         !  frequency of surface boundary condition computation 
   ln_rnf      = .false.   !  runoffs
/  
!-----------------------------------------------------------------------
&namtra_qsr    !   penetrative solar radiation
!-----------------------------------------------------------------------
   ln_traqsr   = .false.   !  Light penetration (T) or not (F)
/
!-----------------------------------------------------------------------
&namsbc_ssr    !   surface boundary condition : sea surface restoring
!-----------------------------------------------------------------------
/      

!-----------------------------------------------------------------------
&namcla        !   cross land advection
!-----------------------------------------------------------------------
/
!-----------------------------------------------------------------------
&nambbl        !   bottom boundary layer scheme
!-----------------------------------------------------------------------
/
!-----------------------------------------------------------------------
&nameos        !   ocean physical parameters
!-----------------------------------------------------------------------
/
!-----------------------------------------------------------------------
&namtra_ldf    !   lateral diffusion scheme for tracer 
!-----------------------------------------------------------------------
   ln_triad_iso     =  .true.  !  griffies operator calculates triads twice => pure lateral mixing in ML (require "key_ldfslp")
/
!-----------------------------------------------------------------------
&namdta_dyn        !   offline dynamics read in files                ("key_offline")
!-----------------------------------------------------------------------
!          !  file name  ! frequency (hours) ! variable  ! time interp. !  clim  ! 'yearly'/ ! weights  ! rotation ! land/sea mask !
!          !             !  (if <0  months)  !   name    !   (logical)  !  (T/F) ! 'monthly' ! filename ! pairing  ! filename      !
   sn_tem  = 'dyna_grid_T' ,    120            , 'votemper'   ,  .true.    , .true. ,   'yearly'  , ''       , ''    , ''
   sn_sal  = 'dyna_grid_T' ,    120            , 'vosaline'   ,  .true.    , .true. ,   'yearly'  , ''       , ''    , ''
   sn_mld  = 'dyna_grid_T' ,    120            , 'somixhgt'   ,  .true.    , .true. ,   'yearly'  , ''       , ''    , ''
   sn_emp  = 'dyna_grid_T' ,    120            , 'sowaflup'   ,  .true.    , .true. ,   'yearly'  , ''       , ''    , ''
   sn_fmf  = 'dyna_grid_T' ,    120            , 'iowaflup'   ,  .true.    , .true. ,   'yearly'  , ''       , ''    , ''
   sn_ice  = 'dyna_grid_T' ,    120            , 'soicecov'   ,  .true.    , .true. ,   'yearly'  , ''       , ''    , ''
   sn_qsr  = 'dyna_grid_T' ,    120            , 'soshfldo'   ,  .true.    , .true. ,   'yearly'  , ''       , ''    , ''
   sn_wnd  = 'dyna_grid_T' ,    120            , 'sowindsp'   ,  .true.    , .true. ,   'yearly'  , ''       , ''    , ''
   sn_uwd  = 'dyna_grid_U' ,    120            , 'uocetr_eff' ,  .true.    , .true. ,   'yearly'  , ''       , ''    , ''
   sn_vwd  = 'dyna_grid_V' ,    120            , 'vocetr_eff' ,  .true.    , .true. ,   'yearly'  , ''       , ''    , ''
   sn_wwd  = 'dyna_grid_W' ,    120            , 'wocetr_eff' ,  .true.    , .true. ,   'yearly'  , ''       , ''    , ''
   sn_avt  = 'dyna_grid_W' ,    120            , 'voddmavs'   ,  .true.    , .true. ,   'yearly'  , ''       , ''    , ''
   sn_ubl  = 'dyna_grid_U' ,    120            , 'sobblcox'   ,  .true.    , .true. ,   'yearly'  , ''       , ''    , ''
   sn_vbl  = 'dyna_grid_V' ,    120            , 'sobblcoy'   ,  .true.    , .true. ,   'yearly'  , ''       , ''    , ''
!
   cn_dir          = './'       !  root directory for the location of the dynamical files
   ln_dynrnf       =  .false.   !  runoffs option enabled (T) or not (F)
   ln_dynrnf_depth =  .false.   ! runoffs is spread in vertical (T) or not (F)
!   fwbcorr      = 3.786e-06    ! annual global mean of empmr for ssh correction
/
!-----------------------------------------------------------------------
&nammpp        !   Massively Parallel Processing                        ("key_mpp_mpi)
!-----------------------------------------------------------------------
/
!-----------------------------------------------------------------------
&namctl        !   Control prints & Benchmark
!-----------------------------------------------------------------------
/
