!!>>>>>>>>>>>>>>>>>>>>>>>>>>>>>>>>>>>>>>>>>>>>>>>>>>>>>>>>>>>>>>>>>>>>>>
!! NEMO/LIM2 : Configuration namelist used to overwrite 1_namelist_ice_ref
!>>>>>>>>>>>>>>>>>>>>>>>>>>>>>>>>>>>>>>>>>>>>>>>>>>>>>>>>>>>>>>>>>>>>>>>
!
!-----------------------------------------------------------------------
&namicerun     !   Share parameters for dynamics/advection/thermo
!-----------------------------------------------------------------------
/
!-----------------------------------------------------------------------
&namiceini     !   ice initialisation
!-----------------------------------------------------------------------
/
!-----------------------------------------------------------------------
&namicedyn     !   ice dynamic
!-----------------------------------------------------------------------
   creepl      =   2.0e-08 !  creep limit
   nevp        =   360     !  number of EVP subcycling iterations
   telast      =   3600    !  timescale for EVP elastic waves
/
!-----------------------------------------------------------------------
&namicetrp     !   ice transport
!-----------------------------------------------------------------------
/
!-----------------------------------------------------------------------
&namicethd     !   ice thermodynamic
!-----------------------------------------------------------------------
/
!-----------------------------------------------------------------------
&namicedia     !   ice diagnostics
!-----------------------------------------------------------------------
/
!'''''''''''''''''''''''''''''''''''''''''''''''''''''''''''''''''''''''
&namiceout     !   parameters for outputs
!,,,,,,,,,,,,,,,,,,,,,,,,,,,,,,,,,,,,,,,,,,,,,,,,,,,,,,,,,,,,,,,,,,,,,,,
/      
