!-----------------------------------------------------------------------
&namrun        !   parameters of the run
!-----------------------------------------------------------------------
   nn_no       =       0   !  Assimilation cycle index
   cn_exp      =  "ORCA2"  !  experience name
   nn_it000    =       1   !  first time step
   nn_itend    =    5475   !  last  time step (std 5475)
   nn_date0    =  010101   !  date at nit_0000 (format yyyymmdd) used if ln_rstart=F or (ln_rstart=T and nn_rstctl=0 or 1)
   nn_time0    =       0   !  initial time of day in hhmm
   nn_leapy    =       0   !  Leap year calendar (1) or not (0)
   ln_rstart   = .false.   !  start from rest (F) or from a restart file (T)
      nn_euler    =    1      !  = 0 : start with forward time step if ln_rstart=T
      nn_rstctl   =    0      !  restart control ==> activated only if ln_rstart=T
      !                          !    = 0 nn_date0 read in namelist ; nn_it000 : read in namelist
      !                          !    = 1 nn_date0 read in namelist ; nn_it000 : check consistancy between namelist and restart
      !                          !    = 2 nn_date0 read in restart  ; nn_it000 : check consistancy between namelist and restart
      cn_ocerst_in    = "restart"   !  suffix of ocean restart name (input)
      cn_ocerst_indir = "."         !  directory from which to read input ocean restarts
      cn_ocerst_out   = "restart"   !  suffix of ocean restart name (output)
      cn_ocerst_outdir = "."         !  directory in which to write output ocean restarts
   ln_iscpl    = .false.   !  cavity evolution forcing or coupling to ice sheet model
   nn_istate   =       0   !  output the initial state (1) or not (0)
   ln_rst_list = .false.   !  output restarts at list of times using nn_stocklist (T) or at set frequency with nn_stock (F)
   nn_stock    =    5475   !  frequency of creation of a restart file (modulo referenced to 1)
   nn_stocklist = 0,0,0,0,0,0,0,0,0,0 ! List of timesteps when a restart file is to be written
   nn_write    =    5475   !  frequency of write in the output file   (modulo referenced to nn_it000)
   ln_mskland  = .false.   !  mask land points in NetCDF outputs (costly: + ~15%)
   ln_cfmeta   = .false.   !  output additional data to netCDF files required for compliance with the CF metadata standard
   ln_clobber  = .true.    !  clobber (overwrite) an existing file
   nn_chunksz  =       0   !  chunksize (bytes) for NetCDF file (works only with iom_nf90 routines)
   ln_xios_read = .FALSE.  !  use XIOS to read restart file (only for a single file restart)
   nn_wxios = 0      !  use XIOS to write restart file 0 - no, 1 - single file output, 2 - multiple file output
/
