../../../NEMO/OPA_SRC/OBS/ddatetoymdhms.h90