../../../NEMO/OPA_SRC/OBS/grt_cir_dis.h90