../../../NEMO/OPA_SRC/OBS/obssla_types.h90