!!>>>>>>>>>>>>>>>>>>>>>>>>>>>>>>>>>>>>>>>>>>>>>>>>>>>>>>>>>>>>>>>>>>>>>>
!! NEMO/OCE :   Reference namelist_ref                                !!
!!>>>>>>>>>>>>>>>>>>>>>>>>>>>>>>>>>>>>>>>>>>>>>>>>>>>>>>>>>>>>>>>>>>>>>>
!! NEMO/OCE  :  1 - Domain & run manager (namrun, namcfg, namdom, namtsd, namcrs, namc1d, namc1d_uvd)
!! namelists    2 - Surface boundary (namsbc, namsbc_flx, namsbc_blk, namsbc_cpl,
!!                                    namsbc_sas, namtra_qsr, namsbc_rnf,
!!                                    namsbc_isf, namsbc_iscpl, namsbc_apr, 
!!                                    namsbc_ssr, namsbc_wave, namberg)
!!              3 - lateral boundary (namlbc, namagrif, nambdy, nambdy_tide)
!!              4 - top/bot boundary (namdrg, namdrg_top, namdrg_bot, nambbc, nambbl)
!!              5 - Tracer           (nameos, namtra_adv, namtra_ldf, namtra_eiv, namtra_dmp)
!!              6 - dynamics         (namdyn_adv, namdyn_vor, namdyn_hpg, namdyn_spg, namdyn_ldf)
!!              7 - Vertical physics (namzdf, namzdf_ric, namzdf_tke, namzdf_gls, namzdf_iwm)
!!              8 - diagnostics      (namnc4, namtrd, namspr, namflo, namhsb)
!!              9 - Obs & Assim      (namobs, nam_asminc)
!!             10 - miscellaneous    (nammpp, namctl, namsto)
!!>>>>>>>>>>>>>>>>>>>>>>>>>>>>>>>>>>>>>>>>>>>>>>>>>>>>>>>>>>>>>>>>>>>>>>

!!======================================================================
!!              ***  Domain & Run management namelists  ***           !!
!!                                                                    !!
!!   namrun       parameters of the run
!!   namdom       space and time domain
!!   namcfg       parameters of the configuration                       (default: user defined GYRE)
!!   namwad       Wetting and drying                                    (default: OFF)
!!   namtsd       data: temperature & salinity                          (default: OFF)
!!   namcrs       coarsened grid (for outputs and/or TOP)               (ln_crs =T)
!!   namc1d       1D configuration options                              (ln_c1d =T)
!!   namc1d_dyndmp 1D newtonian damping applied on currents             (ln_c1d =T)
!!   namc1d_uvd   1D data (currents)                                    (ln_c1d =T)
!!======================================================================
!
!-----------------------------------------------------------------------
&namusr_def    !   C1D user defined namelist
!-----------------------------------------------------------------------
   rn_bathy    =  4198.   ! depth in meters
/
!-----------------------------------------------------------------------
&namrun        !   parameters of the run
!-----------------------------------------------------------------------
   cn_exp      = "C1D_PAPA"!  experience name
   nn_it000    =       1   !  first time step
   nn_itend    =   87600   !  last  time step (std 5475)
   nn_date0    = 20100615  !  date at nit_0000 (format yyyymmdd) used if ln_rstart=F or (ln_rstart=T and nn_rstctl=0 or 1)
   nn_stock    =   87600   !  frequency of creation of a restart file (modulo referenced to 1)
   nn_write    =     240   !  frequency of write in the output file   (modulo referenced to nn_it000)
/
!-----------------------------------------------------------------------
&namdom        !   time and space domain
!-----------------------------------------------------------------------
   ln_linssh   = .true.   !  =T  linear free surface  ==>>  model level are fixed in time
   !
   rn_Dt       =  360.     !  time step for the dynamics and tracer
   !
   ln_c1d      = .true.    !  Single column domain (1x1pt)              (T => fill namc1d)
/
!-----------------------------------------------------------------------
&namcfg        !   parameters of the configuration                      (default: use namusr_def in namelist_cfg)
!-----------------------------------------------------------------------
/
!-----------------------------------------------------------------------
&namtile        !   parameters of the tiling
!-----------------------------------------------------------------------
/
!-----------------------------------------------------------------------
&namtsd        !    Temperature & Salinity Data  (init/dmp)             (default: OFF)
!-----------------------------------------------------------------------
   !                       ! =T  read T-S fields for:
   ln_tsd_init = .true.          !  ocean initialisation
   
   cn_dir      = './'      !  root directory for the T-S data location
   !___________!_________________________!___________________!___________!_____________!________!___________!__________________!__________!_______________!
   !           !  file name              ! frequency (hours) ! variable  ! time interp.!  clim  ! 'yearly'/ ! weights filename ! rotation ! land/sea mask !
   !           !                         !  (if <0  months)  !   name    !   (logical) !  (T/F) ! 'monthly' !                  ! pairing  !    filename   !
   sn_tem      = 'init_PAPASTATION'       ,         24.       ,'votemper',  .false.     , .true.,  'daily'  ,    ''            ,    ''    ,    ''
   sn_sal      = 'init_PAPASTATION'       ,         24.       ,'vosaline',  .false.     , .true.,  'daily'  ,    ''            ,    ''    ,    ''
/
!-----------------------------------------------------------------------
&namwad        !   Wetting and Drying (WaD)                             (default: OFF)
!-----------------------------------------------------------------------
/
!-----------------------------------------------------------------------
&namcrs        !   coarsened grid (for outputs and/or TOP)              (ln_crs =T)
!-----------------------------------------------------------------------
/
!-----------------------------------------------------------------------
&namc1d        !   1D configuration options                             (ln_c1d =T default: PAPA station)
!-----------------------------------------------------------------------
   rn_lat1d    =    50.    !  Column latitude
   rn_lon1d    =  -145.    !  Column longitude
/
!-----------------------------------------------------------------------
&namc1d_dyndmp !   U & V newtonian damping                              (ln_c1d =T default: OFF)
!-----------------------------------------------------------------------
   ln_dyndmp   =  .false.  !  add a damping term (T) or not (F)
/
!-----------------------------------------------------------------------
&namc1d_uvd    !   data: U & V currents                                 (ln_c1d =T default: OFF)
!-----------------------------------------------------------------------
   !                       !  =T read U-V fields for:
   ln_uvd_init   = .false.       !  ocean initialisation
   ln_uvd_dyndmp = .false.       !  U-V restoring

   cn_dir      = './'      !  root directory for the U-V data location
   !___________!_________________________!___________________!___________!_____________!________!___________!__________________!__________!_______________!
   !           !  file name              ! frequency (hours) ! variable  ! time interp.!  clim  ! 'yearly'/ ! weights filename ! rotation ! land/sea mask !
   !           !                         !  (if <0  months)  !   name    !   (logical) !  (T/F) ! 'monthly' !                  ! pairing  !    filename   !
   sn_ucur     = 'ucurrent'              ,         -1.       ,'u_current',   .false.   , .true. , 'monthly' ,  ''              ,  'Ume'   , ''
   sn_vcur     = 'vcurrent'              ,         -1.       ,'v_current',   .false.   , .true. , 'monthly' ,  ''              ,  'Vme'   , ''
/

!!======================================================================
!!            ***  Surface Boundary Condition namelists  ***          !!
!!                                                                    !!
!!   namsbc          surface boundary condition manager                 (default: NO selection)
!!   namsbc_flx      flux               formulation                     (ln_flx     =T)
!!   namsbc_blk      Bulk formulae formulation                          (ln_blk     =T)
!!   namsbc_cpl      CouPLed            formulation                     ("key_oasis3" )
!!   namsbc_sas      Stand-Alone Surface module                         (SAS_SRC  only)
!!   namsbc_iif      Ice-IF: use observed ice cover                     (nn_ice = 1   )
!!   namtra_qsr      penetrative solar radiation                        (ln_traqsr  =T)
!!   namsbc_ssr      sea surface restoring term (for T and/or S)        (ln_ssr     =T)
!!   namsbc_rnf      river runoffs                                      (ln_rnf     =T)
!!   namsbc_apr      Atmospheric Pressure                               (ln_apr_dyn =T)
!!   namsbc_isf      ice shelf melting/freezing                         (ln_isfcav  =T : read (ln_read_cfg=T) or set or usr_def_zgr )
!!   namsbc_iscpl    coupling option between land ice model and ocean   (ln_isfcav  =T)
!!   namsbc_wave     external fields from wave model                    (ln_wave    =T)
!!   namberg         iceberg floats                                     (ln_icebergs=T)
!!======================================================================
!
!-----------------------------------------------------------------------
&namsbc        !   Surface Boundary Condition manager                   (default: NO selection)
!-----------------------------------------------------------------------
   nn_fsbc     = 1         !  frequency of SBC module call
      !                    !  (control sea-ice & iceberg model call)
                     ! Type of air-sea fluxes 
   ln_blk      = .true.   !  Bulk formulation                          (T => fill namsbc_blk )
      !              ! Type of coupling (Ocean/Ice/Atmosphere) :
                     ! Misc. options of sbc : 
   ln_traqsr   = .true.    !  Light penetration in the ocean            (T => fill namtra_qsr)
/
!-----------------------------------------------------------------------
&namsbc_flx    !   surface boundary condition : flux formulation        (ln_flx =T)
!-----------------------------------------------------------------------
/
!-----------------------------------------------------------------------
&namsbc_blk    !   namsbc_blk  generic Bulk formula                     (ln_blk =T)
!-----------------------------------------------------------------------
   !                    !  bulk algorithm :
   ln_NCAR     = .true.   ! "NCAR"      algorithm   (Large and Yeager 2008)
      !
      rn_zqt      =  2.       !  Air temperature & humidity reference height (m)
      rn_zu       = 10.       !  Wind vector reference height (m)

   cn_dir      = './'      !  root directory for the bulk data location
   !___________!_________________________!___________________!___________!_____________!________!___________!______________________________________!__________!_______________!
   !           !  file name              ! frequency (hours) ! variable  ! time interp.!  clim  ! 'yearly'/ !       weights filename               ! rotation ! land/sea mask !
   !           !                         !  (if <0  months)  !   name    !   (logical) !  (T/F) ! 'monthly' !                                      ! pairing  !    filename   !
   sn_wndi     = 'forcing_C1D_PAPA'   ,  3.   , 'sowinu10',   .true.     , .false. , 'yearly'  , ''   ,''   , ''
   sn_wndj     = 'forcing_C1D_PAPA'   ,  3.   , 'sowinv10',   .true.     , .false. , 'yearly'  , ''   ,''   , ''
   sn_qsr      = 'forcing_C1D_PAPA'   ,  3.   , 'sosudosw',   .false.    , .false. , 'yearly'  , ''  , ''   , ''
   sn_qlw      = 'forcing_C1D_PAPA'   ,  3.   , 'sosudolw',   .false.    , .false. , 'yearly'  , ''  , ''   , ''
   sn_tair     = 'forcing_C1D_PAPA'   ,  3.   , 'sotemair',   .true.     , .false. , 'yearly'  , ''  , ''   , ''
   sn_humi     = 'forcing_C1D_PAPA'   ,  3.   , 'sohumspe',   .true.     , .false. , 'yearly'  , ''  , ''   , ''
   sn_prec     = 'forcing_C1D_PAPA'   ,  3.   , 'sowaprec',   .false.    , .false. , 'yearly'  , ''  , ''   , ''
   sn_snow     = 'forcing_C1D_PAPA'   ,  3.   , 'sososnow',   .false.    , .false. , 'yearly'  , ''  , ''   , ''
   sn_slp      = 'forcing_C1D_PAPA'   ,  3.   , 'somslpre',   .true.     , .false. , 'yearly'  , ''  , ''   , ''

/
!-----------------------------------------------------------------------
&namsbc_cpl    !   coupled ocean/atmosphere model                       ("key_oasis3")
!-----------------------------------------------------------------------
/
!-----------------------------------------------------------------------
&namsbc_sas    !   Stand-Alone Surface module: ocean data               (SAS_SRC  only)
!-----------------------------------------------------------------------
/
!-----------------------------------------------------------------------
&namsbc_iif    !   Ice-IF : use observed ice cover                      (nn_ice = 1)
!-----------------------------------------------------------------------
/
!-----------------------------------------------------------------------
&namtra_qsr    !   penetrative solar radiation                          (ln_traqsr =T)
!-----------------------------------------------------------------------
   !                       !  type of penetration                        (default: NO selection)
   ln_qsr_rgb  = .true.      !  RGB light penetration (Red-Green-Blue)
   
   cn_dir      = './'      !  root directory for the chlorophyl data location
   !___________!_________________________!___________________!___________!_____________!________!___________!__________________!__________!_______________!
   !           !  file name              ! frequency (hours) ! variable  ! time interp.!  clim  ! 'yearly'/ ! weights filename ! rotation ! land/sea mask !
   !           !                         !  (if <0  months)  !   name    !   (logical) !  (T/F) ! 'monthly' !                  ! pairing  !    filename   !

   sn_chl      ='chlorophyll_PAPASTATION',         -1.       , 'CHLA'    ,   .true.     , .true. , 'yearly'  ,        ''       ,    ''    , ''
/
!-----------------------------------------------------------------------
&namsbc_ssr    !   surface boundary condition : sea surface restoring   (ln_ssr =T)
!-----------------------------------------------------------------------
/
!-----------------------------------------------------------------------
&namsbc_rnf    !   runoffs                                              (ln_rnf =T)
!-----------------------------------------------------------------------
/
!-----------------------------------------------------------------------
&namsbc_apr    !   Atmospheric pressure used as ocean forcing           (ln_apr_dyn =T)
!-----------------------------------------------------------------------
/
!-----------------------------------------------------------------------
&namsbc_isf    !  Top boundary layer (ISF)                              (ln_isfcav =T : read (ln_read_cfg=T) 
!-----------------------------------------------------------------------             or set or usr_def_zgr )
/
!-----------------------------------------------------------------------
&namsbc_iscpl  !   land ice / ocean coupling option                     (ln_isfcav =T : read (ln_read_cfg=T) 
!-----------------------------------------------------------------------             or set or usr_def_zgr )
/
!-----------------------------------------------------------------------
&namsbc_wave   ! External fields from wave model                        (ln_wave=T)
!-----------------------------------------------------------------------
/
!-----------------------------------------------------------------------
&namberg       !   iceberg parameters                                   (default: OFF)
!-----------------------------------------------------------------------
/

!!======================================================================
!!               ***  Lateral boundary condition  ***                 !!
!!                                                                    !!
!!   namlbc        lateral momentum boundary condition                  (default: NO selection)
!!   namagrif      agrif nested grid   (read by child model only)       ("key_agrif")
!!   nam_tide      Tidal forcing                                        (default: OFF)
!!   nambdy        Unstructured open boundaries                         (default: OFF)
!!   nambdy_dta    Unstructured open boundaries - external data         (see  nambdy)
!!   nambdy_tide   tidal forcing at open boundaries                     (default: OFF)
!!======================================================================
!
!-----------------------------------------------------------------------
&namlbc        !   lateral momentum boundary condition                  (default: NO selection)
!-----------------------------------------------------------------------
   rn_shlat    =  0.   !  shlat = 0  !  0 < shlat < 2  !  shlat = 2  !  2 < shlat
/
!-----------------------------------------------------------------------
&namagrif      !  AGRIF zoom                                            ("key_agrif")
!-----------------------------------------------------------------------
/
!-----------------------------------------------------------------------
&nam_tide      !   tide parameters                                      (default: OFF)
!-----------------------------------------------------------------------
/
!-----------------------------------------------------------------------
&nambdy        !  unstructured open boundaries                          (default: OFF)
!-----------------------------------------------------------------------
/
!-----------------------------------------------------------------------
&nambdy_dta    !  open boundaries - external data                       (see nam_bdy)
!-----------------------------------------------------------------------
/
!-----------------------------------------------------------------------
&nambdy_tide   !  tidal forcing at open boundaries                      (default: OFF)
!-----------------------------------------------------------------------
/

!!======================================================================
!!                ***  Top/Bottom boundary condition  ***             !!
!!                                                                    !!
!!   namdrg        top/bottom drag coefficient                          (default: NO selection)
!!   namdrg_top    top    friction                                      (ln_drg_OFF=F & ln_isfcav=T)
!!   namdrg_bot    bottom friction                                      (ln_drg_OFF=F)
!!   nambbc        bottom temperature boundary condition                (default: OFF)
!!   nambbl        bottom boundary layer scheme                         (default: OFF)
!!======================================================================
!
!-----------------------------------------------------------------------
&namdrg        !   top/bottom drag coefficient                          (default: NO selection)
!-----------------------------------------------------------------------
   ln_non_lin  = .true.   !  non-linear  drag: Cd = Cd0 |U|
/
!-----------------------------------------------------------------------
&namdrg_top    !   TOP friction                                         (ln_drg_OFF =F & ln_isfcav=T)
!-----------------------------------------------------------------------
/
!-----------------------------------------------------------------------
&namdrg_bot    !   BOTTOM friction                                      (ln_drg_OFF =F)
!-----------------------------------------------------------------------
/
!-----------------------------------------------------------------------
&nambbc        !   bottom temperature boundary condition                (default: OFF)
!-----------------------------------------------------------------------
/
!-----------------------------------------------------------------------
&nambbl        !   bottom boundary layer scheme                         (default: OFF)
!-----------------------------------------------------------------------
/

!!======================================================================
!!                        Tracer (T-S) namelists                      !!
!!                                                                    !!
!!   nameos        equation of state                                    (default: NO selection)
!!   namtra_adv    advection scheme                                     (default: NO selection)
!!   namtra_ldf    lateral diffusion scheme                             (default: NO selection)
!!   namtra_mle    mixed layer eddy param. (Fox-Kemper param.)          (default: OFF)
!!   namtra_eiv    eddy induced velocity param.                         (default: OFF)
!!   namtra_dmp    T & S newtonian damping                              (default: OFF)
!!======================================================================
!
!-----------------------------------------------------------------------
&nameos        !   ocean Equation Of Seawater                           (default: NO selection)
!-----------------------------------------------------------------------
   ln_eos80    = .true.         !  = Use EOS80
/
!-----------------------------------------------------------------------
&namtra_adv    !   advection scheme for tracer                          (default: NO selection)
!-----------------------------------------------------------------------
   ln_traadv_OFF = .true. !  No tracer advection
/
!-----------------------------------------------------------------------
&namtra_ldf    !   lateral diffusion scheme for tracers                 (default: NO selection)
!-----------------------------------------------------------------------
   !                       !  Operator type:
   ln_traldf_OFF   = .true.   !  No explicit diffusion
/
!-----------------------------------------------------------------------
&namtra_mle    !   mixed layer eddy parametrisation (Fox-Kemper)       (default: OFF)
!-----------------------------------------------------------------------
/
!-----------------------------------------------------------------------
&namtra_eiv    !   eddy induced velocity param.                         (default: OFF)
!-----------------------------------------------------------------------
/
!-----------------------------------------------------------------------
&namtra_dmp    !   tracer: T & S newtonian damping                      (default: OFF)
!-----------------------------------------------------------------------
/

!!======================================================================
!!                      ***  Dynamics namelists  ***                  !!
!!                                                                    !!
!!   nam_vvl       vertical coordinate options                          (default: z-star)
!!   namdyn_adv    formulation of the momentum advection                (default: NO selection)
!!   namdyn_vor    advection scheme                                     (default: NO selection)
!!   namdyn_hpg    hydrostatic pressure gradient                        (default: NO selection)
!!   namdyn_spg    surface pressure gradient                            (default: NO selection)
!!   namdyn_ldf    lateral diffusion scheme                             (default: NO selection)
!!   namdta_dyn    offline TOP: dynamics read in files                  (OFF_SRC only)
!!======================================================================
!
!-----------------------------------------------------------------------
&nam_vvl       !   vertical coordinate options                          (default: z-star)
!-----------------------------------------------------------------------
/
!-----------------------------------------------------------------------
&namdyn_adv    !   formulation of the momentum advection                (default: NO selection)
!-----------------------------------------------------------------------
   ln_dynadv_OFF = .true. !  linear dynamics (no momentum advection)
/
!-----------------------------------------------------------------------
&namdyn_vor    !   Vorticity / Coriolis scheme                          (default: NO selection)
!-----------------------------------------------------------------------
   ln_dynvor_ene = .true. !  energy    conserving scheme
/
!-----------------------------------------------------------------------
&namdyn_hpg    !   Hydrostatic pressure gradient option                 (default: NO selection)
!-----------------------------------------------------------------------
   ln_hpg_sco  = .true.   !  s-coordinate (standard jacobian formulation)
/
!-----------------------------------------------------------------------
&namdyn_spg    !   surface pressure gradient                            (default: NO selection)
!-----------------------------------------------------------------------
/
!-----------------------------------------------------------------------
&namdyn_ldf    !   lateral diffusion on momentum                        (default: NO selection)
!-----------------------------------------------------------------------
   !                       !  Type of the operator :
   ln_dynldf_OFF = .true.     !  No operator (i.e. no explicit diffusion)
/
!-----------------------------------------------------------------------
&namdta_dyn    !   offline ocean input files                            (OFF_SRC only)
!-----------------------------------------------------------------------
/

!!======================================================================
!!                     vertical physics namelists                     !!
!!                                                                    !!
!!    namzdf        vertical physics manager                            (default: NO selection)
!!    namzdf_ric    richardson number vertical mixing                   (ln_zdfric=T)
!!    namzdf_tke    TKE vertical mixing                                 (ln_zdftke=T)
!!    namzdf_gls    GLS vertical mixing                                 (ln_zdfgls=T)
!!    namzdf_osm    OSM vertical diffusion                              (ln_zdfosm=T)
!!    namzdf_iwm    tidal mixing parameterization                       (ln_zdfiwm=T)
!!======================================================================
!
!-----------------------------------------------------------------------
&namzdf        !   vertical physics manager                             (default: NO selection)
!-----------------------------------------------------------------------
   !                       ! type of vertical closure (required)
   ln_zdfgls   = .true.      !  Generic Length Scale closure           (T =>   fill namzdf_gls)
/
!-----------------------------------------------------------------------
&namzdf_ric    !   richardson number dependent vertical diffusion       (ln_zdfric =T)
!-----------------------------------------------------------------------
/
!-----------------------------------------------------------------------
&namzdf_tke    !   turbulent eddy kinetic dependent vertical diffusion  (ln_zdftke =T)
!-----------------------------------------------------------------------
/
!-----------------------------------------------------------------------
&namzdf_gls    !   GLS vertical diffusion                               (ln_zdfgls =T)
!-----------------------------------------------------------------------
/
!-----------------------------------------------------------------------
&namzdf_osm    !   OSM vertical diffusion                               (ln_zdfosm =T)
!-----------------------------------------------------------------------
/
!-----------------------------------------------------------------------
&namzdf_iwm    !    internal wave-driven mixing parameterization        (ln_zdfiwm =T)
!-----------------------------------------------------------------------
/

!!======================================================================
!!                  ***  Diagnostics namelists  ***                   !!
!!                                                                    !!
!!   namtrd       dynamics and/or tracer trends                         (default: OFF)
!!   namhsb       Heat and salt budgets                                 (default: OFF)
!!   namdiu       Cool skin and warm layer models                       (default: OFF)
!!   namdiu       Cool skin and warm layer models                       (default: OFF)
!!   namflo       float parameters                                      (default: OFF)
!!   nam_diadct   transports through some sections                      (default: OFF)
!!   nam_dia25h   25h Mean Output                                       (default: OFF)
!!   namnc4       netcdf4 chunking and compression settings             ("key_netcdf4")
!!======================================================================
!
!-----------------------------------------------------------------------
&namtrd        !   trend diagnostics                                    (default: OFF)
!-----------------------------------------------------------------------
/
!-----------------------------------------------------------------------
&namhsb        !  Heat and salt budgets                                 (default: OFF)
!-----------------------------------------------------------------------
/
!-----------------------------------------------------------------------
&namdiu        !   Cool skin and warm layer models                      (default: OFF)
!-----------------------------------------------------------------------
/
!-----------------------------------------------------------------------
&namflo        !   float parameters                                     (default: OFF)
!-----------------------------------------------------------------------
/